---- qbsp / ericw-tools 2.0.0-alpha10 ----

--- Options Summary ---
    "forcegoodtree" was set to "1" (from command line)
    "wadpath" was set to "./tools/Disruptor/" (from command line)

Input file: /home/kai/projects/disruptor/./resources/maps/06/test06.map
Output file: /home/kai/projects/disruptor/./resources/maps/06/test06.bsp

INFO: using built-in palette.
       46 entities
       12 unique textures
      778 texinfos
    1,214 unique planes

INFO: world extents calculated to 7496 units
      981 brushes
    5,871 sides
      156 side bevels

            0 texture frames added
WARNING: unable to find texture metal01
Processing hull 0...
      6 SKY brushes
    975 SOLID brushes
    981 brushes total
    5,871 visible sides
INFO: calculating BSP for 981 brushes with 5871 sides
      981 brushes
    5,871 visible faces
    3,461 nodes
    3,461 expensive split nodes
    3,462 leaves
    1,351 SOLID leafs
      318 SKY leafs
    1,793 EMPTY leafs
    3,462 leafs total
    22 max tree height
    14 avg tree height
    16,583 tree portals
    268 outside leaves
    0 detail filled leafs
      981 brushes
    3,587 visible faces
    2,284 non-visible faces
    3,851 nodes
      685 non-visible nodes
    3,851 expensive split nodes
    3,852 leaves
    1,452 SOLID leafs
      411 SKY leafs
    1,989 EMPTY leafs
    3,852 leafs total
    21 max tree height
    14 avg tree height
    17,946 tree portals
    464 outside leaves
    0 detail filled leafs
    17,946 tree portals
    14,106 sides visible
    7,335 makefaces
    1,475 merged
    2,049 subdivided
    199 nodes pruned
    1,936 player-occupiable leaves
    1,936 clusters of leaves
    4,921 vis portals
    1,525 EMPTY leafs
      411 SKY leafs
    1,717 SOLID leafs
    3,653 leafs total
    21 max tree height
    14 avg tree height
     7,298 edges added by tjunctions
     7,589 faces optimized through MWT
    22,533 triangles computed from MWT
     1,839 faces created via optimization of MWT triangles
    21,053 edges
     9,483 faces
Processing hull 1...
Processing hull 2...
Writing ./resources/maps/06/test06.bsp as Quake BSP bsp29
Wrote ./resources/maps/06/test06.bsp

count   lump name    byte size 
      1 models               64
    862 planes            17240
  10477 vertexes         125724
   3652 nodes             87648
    574 texinfos          22960
   9483 faces            189660
   6996 clipnodes         55968
   1937 leafs             54236
  11303 marksurfaces      22606
  21054 edges             84216
  41554 surfedges        166216
     12 textures         547544
        lightdata             0
        visdata               0
        entdata            4545

1.801s seconds elapsed


